Metadata-Version: 2.1
Name: modflow-devtools
Version: 0.2.0
Summary: Python tools for MODFLOW development
Author-email: "Joseph D. Hughes" <modflow@usgs.gov>
Maintainer-email: "Joseph D. Hughes" <modflow@usgs.gov>
License: CC0
Project-URL: Documentation, https://modflow-devtools.readthedocs.io/en/latest/
Project-URL: Bug Tracker, https://github.com/MODFLOW-USGS/modflow-devtools/issues
Project-URL: Source Code, https://github.com/MODFLOW-USGS/modflow-devtools
Keywords: MODFLOW,development,utilities,groundwater,hydrogeology
Classifier: Development Status :: 3 - Alpha
Classifier: Intended Audience :: Science/Research
Classifier: License :: CC0 1.0 Universal (CC0 1.0) Public Domain Dedication
Classifier: Programming Language :: Python :: 3 :: Only
Classifier: Programming Language :: Python :: 3
Classifier: Programming Language :: Python :: 3.8
Classifier: Programming Language :: Python :: 3.9
Classifier: Programming Language :: Python :: 3.10
Classifier: Programming Language :: Python :: 3.11
Classifier: Topic :: Scientific/Engineering :: Hydrology
Requires-Python: >=3.8
Description-Content-Type: text/markdown
License-File: LICENSE.md
Requires-Dist: numpy
Requires-Dist: pytest
Provides-Extra: docs
Requires-Dist: sphinx ; extra == 'docs'
Requires-Dist: sphinx-rtd-theme ; extra == 'docs'
Requires-Dist: myst-parser ; extra == 'docs'
Provides-Extra: lint
Requires-Dist: black ; extra == 'lint'
Requires-Dist: cffconvert ; extra == 'lint'
Requires-Dist: flake8 ; extra == 'lint'
Requires-Dist: isort ; extra == 'lint'
Requires-Dist: pylint ; extra == 'lint'
Provides-Extra: test
Requires-Dist: modflow-devtools[lint] ; extra == 'test'
Requires-Dist: coverage ; extra == 'test'
Requires-Dist: flaky ; extra == 'test'
Requires-Dist: filelock ; extra == 'test'
Requires-Dist: meson (!=0.63.0) ; extra == 'test'
Requires-Dist: ninja ; extra == 'test'
Requires-Dist: pytest-cases ; extra == 'test'
Requires-Dist: pytest-cov ; extra == 'test'
Requires-Dist: pytest-dotenv ; extra == 'test'
Requires-Dist: pytest-xdist ; extra == 'test'
Requires-Dist: PyYaml ; extra == 'test'

# MODFLOW developer tools

[![GitHub tag](https://img.shields.io/github/tag/MODFLOW-USGS/modflow-devtools.svg)](https://github.com/MODFLOW-USGS/modflow-devtools/tags/latest)
[![PyPI Version](https://img.shields.io/pypi/v/modflow-devtools.png)](https://pypi.python.org/pypi/modflow-devtools)
[![PyPI Versions](https://img.shields.io/pypi/pyversions/modflow-devtools.png)](https://pypi.python.org/pypi/modflow-devtools)
[![PyPI Status](https://img.shields.io/pypi/status/modflow-devtools.png)](https://pypi.python.org/pypi/modflow-devtools)
[![CI](https://github.com/MODFLOW-USGS/modflow-devtools/actions/workflows/ci.yml/badge.svg)](https://github.com/MODFLOW-USGS/modflow-devtools/actions/workflows/ci.yml)
[![Documentation Status](https://readthedocs.org/projects/modflow-devtools/badge/?version=latest)](https://modflow-devtools.readthedocs.io/en/latest/?badge=latest)

Python tools for MODFLOW development and testing.

<!-- START doctoc generated TOC please keep comment here to allow auto update -->
<!-- DON'T EDIT THIS SECTION, INSTEAD RE-RUN doctoc TO UPDATE -->

- [Requirements](#requirements)
- [Installation](#installation)
- [Use cases](#use-cases)
- [Quickstart](#quickstart)
- [Documentation](#documentation)
- [MODFLOW Resources](#modflow-resources)

<!-- END doctoc generated TOC please keep comment here to allow auto update -->

## Requirements

This project requires Python3.8+. Its only core dependencies are `numpy` and `pytest`.

## Installation

`modflow-devtools` is available on PyPI and can be installed with pip:

```shell
pip install modflow-devtools
```

This package pairs well with a few pytest plugins:

- `pytest-cases`
- `pytest-dotenv`
- `pytest-xdist`

These and a few other optional dependencies can be installed with:

```shell
pip install "modflow-devtools[test]"
```

To install from source and set up a development environment please see the [developer documentation](DEVELOPER.md).

## Use cases

This package contains shared tools for developing and testing MODFLOW 6 and FloPy, including standalone utilities as well as `pytest` fixtures, CLI options, and test cases:

- utilities for retrieving release information and downloading assets from the GitHub API
- a `ZipFile` subclass that [preserves file permissions](https://stackoverflow.com/questions/39296101/python-zipfile-removes-execute-permissions-from-binaries) (workaround for [Python #15795](https://bugs.python.org/issue15795))
- a `pytest` CLI option for smoke testing (running a fast subset of cases)
- a minimal `pytest-cases` framework for reusing test functions and data
- a set of keepable `pytest` temporary directory fixtures for each scope
- a set of fixtures to parametrize tests with models from external repos
  - `MODFLOW-USGS/modflow6-examples`
  - `MODFLOW-USGS/modflow6-testmodels`
  - `MODFLOW-USGS/modflow6-largetestmodels`
- a set of `pytest` markers to conditionally skip test cases based on
  - operating system
  - Python packages installed
  - executables available on the path

## Quickstart

To import `pytest` fixtures in a project consuming `modflow-devtools`, add the following to a `conftest.py` file:

```python
pytest_plugins = [ "modflow_devtools.fixtures" ]
```

**Note**: `pytest` requires this to be a top-level `conftest.py` file. Nested `conftest.py` files may override or extend this package's fixtures.

## Documentation

Usage documentation is available at [modflow-devtools.readthedocs.io](https://modflow-devtools.readthedocs.io/en/latest/).

## MODFLOW Resources

+ [MODFLOW and Related Programs](https://water.usgs.gov/ogw/modflow/)
+ [Online guide for MODFLOW-2000](https://water.usgs.gov/nrp/gwsoftware/modflow2000/Guide/)
+ [Online guide for MODFLOW-2005](https://water.usgs.gov/ogw/modflow/MODFLOW-2005-Guide/)
+ [Online guide for MODFLOW-NWT](https://water.usgs.gov/ogw/modflow-nwt/MODFLOW-NWT-Guide/)
